<?xml version="1.0" encoding="ISO-8859-1"?>
<febio_spec version="2.5">
	<Module type="reaction-diffusion"/>
	<Control>
		<time_steps>100</time_steps>
		<step_size>0.025</step_size>
	</Control>
	<Globals>
		<Solutes>
			<solute id="1" name="A"/>
			<solute id="2" name="B"/>
		</Solutes>
	</Globals>
	<Material>
		<material id="1" name="Material1" type="reaction-diffusion">
			<species name="A">
				<diffusivity>0.1</diffusivity>
			</species>
		</material>
		<material id="2" name="Material2" type="reaction-diffusion">
			<species name="A">
				<diffusivity>0.1</diffusivity>
			</species>
			<species name="B">
				<diffusivity>0.1</diffusivity>
			</species>
			<reaction type="mass action">
				<equation>A --> B</equation>
				<rate_constant>0.5</rate_constant>
			</reaction>
		</material>
	</Material>
	<Geometry>
		<Nodes name="Object01">
			<node id="1">-1.0000000e+000,-5.0000000e-001, 0.0000000e+000</node>
			<node id="2">-1.0000000e+000,-5.0000000e-001, 2.0000000e-001</node>
			<node id="3">-1.0000000e+000,-4.0000000e-001, 0.0000000e+000</node>
			<node id="4">-1.0000000e+000,-4.0000000e-001, 2.0000000e-001</node>
			<node id="5">-1.0000000e+000,-3.0000000e-001, 0.0000000e+000</node>
			<node id="6">-1.0000000e+000,-3.0000000e-001, 2.0000000e-001</node>
			<node id="7">-1.0000000e+000,-2.0000000e-001, 0.0000000e+000</node>
			<node id="8">-1.0000000e+000,-2.0000000e-001, 2.0000000e-001</node>
			<node id="9">-1.0000000e+000,-1.0000000e-001, 0.0000000e+000</node>
			<node id="10">-1.0000000e+000,-1.0000000e-001, 2.0000000e-001</node>
			<node id="11">-1.0000000e+000,-2.7755576e-017, 0.0000000e+000</node>
			<node id="12">-1.0000000e+000,-2.7755576e-017, 2.0000000e-001</node>
			<node id="13">-1.0000000e+000, 1.0000000e-001, 0.0000000e+000</node>
			<node id="14">-1.0000000e+000, 1.0000000e-001, 2.0000000e-001</node>
			<node id="15">-1.0000000e+000, 2.0000000e-001, 0.0000000e+000</node>
			<node id="16">-1.0000000e+000, 2.0000000e-001, 2.0000000e-001</node>
			<node id="17">-1.0000000e+000, 3.0000000e-001, 0.0000000e+000</node>
			<node id="18">-1.0000000e+000, 3.0000000e-001, 2.0000000e-001</node>
			<node id="19">-1.0000000e+000, 4.0000000e-001, 0.0000000e+000</node>
			<node id="20">-1.0000000e+000, 4.0000000e-001, 2.0000000e-001</node>
<!-- ... 442 like lines cut -->
		</Nodes>
		<Elements type="hex8" mat="1" name="Part1">
			<elem id="1">     1,    23,    25,     3,     2,    24,    26,     4</elem>
			<elem id="2">     3,    25,    27,     5,     4,    26,    28,     6</elem>
			<elem id="3">     5,    27,    29,     7,     6,    28,    30,     8</elem>
			<elem id="4">     7,    29,    31,     9,     8,    30,    32,    10</elem>
			<elem id="5">     9,    31,    33,    11,    10,    32,    34,    12</elem>
			<elem id="6">    11,    33,    35,    13,    12,    34,    36,    14</elem>
			<elem id="7">    13,    35,    37,    15,    14,    36,    38,    16</elem>
			<elem id="8">    15,    37,    39,    17,    16,    38,    40,    18</elem>
			<elem id="9">    17,    39,    41,    19,    18,    40,    42,    20</elem>
			<elem id="10">    19,    41,    43,    21,    20,    42,    44,    22</elem>
			<elem id="11">    23,    45,    47,    25,    24,    46,    48,    26</elem>
			<elem id="12">    25,    47,    49,    27,    26,    48,    50,    28</elem>
			<elem id="13">    27,    49,    51,    29,    28,    50,    52,    30</elem>
			<elem id="14">    29,    51,    53,    31,    30,    52,    54,    32</elem>
			<elem id="15">    31,    53,    55,    33,    32,    54,    56,    34</elem>
			<elem id="16">    33,    55,    57,    35,    34,    56,    58,    36</elem>
			<elem id="17">    35,    57,    59,    37,    36,    58,    60,    38</elem>
			<elem id="18">    37,    59,    61,    39,    38,    60,    62,    40</elem>
			<elem id="19">    39,    61,    63,    41,    40,    62,    64,    42</elem>
			<elem id="20">    41,    63,    65,    43,    42,    64,    66,    44</elem>
<!-- ... 30 like lines cut -->
		</Elements>
		<Elements type="hex8" mat="2" name="Part3">
			<elem id="51">   111,   133,   135,   113,   112,   134,   136,   114</elem>
			<elem id="52">   113,   135,   137,   115,   114,   136,   138,   116</elem>
			<elem id="53">   115,   137,   139,   117,   116,   138,   140,   118</elem>
			<elem id="54">   117,   139,   141,   119,   118,   140,   142,   120</elem>
			<elem id="55">   119,   141,   143,   121,   120,   142,   144,   122</elem>
			<elem id="56">   121,   143,   145,   123,   122,   144,   146,   124</elem>
			<elem id="57">   123,   145,   147,   125,   124,   146,   148,   126</elem>
			<elem id="58">   125,   147,   149,   127,   126,   148,   150,   128</elem>
			<elem id="59">   127,   149,   151,   129,   128,   150,   152,   130</elem>
			<elem id="60">   129,   151,   153,   131,   130,   152,   154,   132</elem>
			<elem id="61">   133,   155,   157,   135,   134,   156,   158,   136</elem>
			<elem id="62">   135,   157,   159,   137,   136,   158,   160,   138</elem>
			<elem id="63">   137,   159,   161,   139,   138,   160,   162,   140</elem>
			<elem id="64">   139,   161,   163,   141,   140,   162,   164,   142</elem>
			<elem id="65">   141,   163,   165,   143,   142,   164,   166,   144</elem>
			<elem id="66">   143,   165,   167,   145,   144,   166,   168,   146</elem>
			<elem id="67">   145,   167,   169,   147,   146,   168,   170,   148</elem>
			<elem id="68">   147,   169,   171,   149,   148,   170,   172,   150</elem>
			<elem id="69">   149,   171,   173,   151,   150,   172,   174,   152</elem>
			<elem id="70">   151,   173,   175,   153,   152,   174,   176,   154</elem>
<!-- ... 130 like lines cut -->
		</Elements>
		<NodeSet name="FixedBC1">
			<node id="111"/>
			<node id="112"/>
			<node id="113"/>
			<node id="114"/>
			<node id="115"/>
			<node id="116"/>
			<node id="117"/>
			<node id="118"/>
			<node id="119"/>
			<node id="120"/>
			<node id="121"/>
			<node id="122"/>
			<node id="123"/>
			<node id="124"/>
			<node id="125"/>
			<node id="126"/>
			<node id="127"/>
			<node id="128"/>
			<node id="129"/>
			<node id="130"/>
			<node id="131"/>
			<node id="132"/>
		</NodeSet>
		<NodeSet name="InitialCondition1">
			<node id="1"/>
			<node id="2"/>
			<node id="3"/>
			<node id="4"/>
			<node id="5"/>
			<node id="6"/>
			<node id="7"/>
			<node id="8"/>
			<node id="9"/>
			<node id="10"/>
			<node id="11"/>
			<node id="12"/>
			<node id="13"/>
			<node id="14"/>
			<node id="15"/>
			<node id="16"/>
			<node id="17"/>
			<node id="18"/>
			<node id="19"/>
			<node id="20"/>
<!-- ... 112 like lines cut -->
		</NodeSet>
	</Geometry>
	<!--Boundary>
		<fix bc="c2" node_set="FixedBC1"/>
	</Boundary-->
	<Initial>
		<init bc="c1" node_set="InitialCondition1">
			<value>1</value>
		</init>
	</Initial>
	<Output>
		<plotfile type="febio">
			<var type="concentration['c1']=c1"/>
			<var type="concentration['c2']=c2"/>
		</plotfile>
	</Output>
</febio_spec>
