<?xml version="1.0" encoding="ISO-8859-1"?>
<febio_spec version="2.5">
	<Module type="reaction-diffusion"/>
	<Control>
		<time_steps>100</time_steps>
		<step_size>0.01</step_size>
		<Ctol>0.001</Ctol>
		<Rtol>0.01</Rtol>
		<force_positive_concentrations>0</force_positive_concentrations>
	</Control>
	<Globals>
		<Solutes>
			<solute id="1" name="A"/>
			<solute id="2" name="B"/>
		</Solutes>
	</Globals>
	<Material>
		<material id="1" name="Material1" type="reaction-diffusion">
			<solid_volume_fraction>0</solid_volume_fraction>
			<species name="A">
				<diffusivity>1</diffusivity>
			</species>
			<species name="B">
				<diffusivity>1</diffusivity>
			</species>
			<reaction type="reaction">
				<equation>A --> B</equation>
				<reaction_rate>0.1</reaction_rate>
			</reaction>
		</material>
		<material id="2" name="Material1" type="reaction-diffusion">
			<solid_volume_fraction>0.5</solid_volume_fraction>
			<species name="A">
				<diffusivity>1</diffusivity>
			</species>
			<species name="B">
				<diffusivity>1</diffusivity>
			</species>
			<reaction type="reaction">
				<equation>A --> B</equation>
				<reaction_rate>0.1</reaction_rate>
			</reaction>
		</material>
	</Material>
	<Geometry>
		<Nodes name="Object01">
			<node id="1">-5.0000000e-001,-5.0000000e-001, 0.0000000e+000</node>
			<node id="2">-5.0000000e-001,-5.0000000e-001, 1.0000000e-001</node>
			<node id="3">-5.0000000e-001,-4.6666667e-001, 0.0000000e+000</node>
			<node id="4">-5.0000000e-001,-4.6666667e-001, 1.0000000e-001</node>
			<node id="5">-5.0000000e-001,-4.3333333e-001, 0.0000000e+000</node>
			<node id="6">-5.0000000e-001,-4.3333333e-001, 1.0000000e-001</node>
			<node id="7">-5.0000000e-001,-4.0000000e-001, 0.0000000e+000</node>
			<node id="8">-5.0000000e-001,-4.0000000e-001, 1.0000000e-001</node>
			<node id="9">-5.0000000e-001,-3.6666667e-001, 0.0000000e+000</node>
			<node id="10">-5.0000000e-001,-3.6666667e-001, 1.0000000e-001</node>
			<node id="11">-5.0000000e-001,-3.3333333e-001, 0.0000000e+000</node>
			<node id="12">-5.0000000e-001,-3.3333333e-001, 1.0000000e-001</node>
			<node id="13">-5.0000000e-001,-3.0000000e-001, 0.0000000e+000</node>
			<node id="14">-5.0000000e-001,-3.0000000e-001, 1.0000000e-001</node>
			<node id="15">-5.0000000e-001,-2.6666667e-001, 0.0000000e+000</node>
			<node id="16">-5.0000000e-001,-2.6666667e-001, 1.0000000e-001</node>
			<node id="17">-5.0000000e-001,-2.3333333e-001, 0.0000000e+000</node>
			<node id="18">-5.0000000e-001,-2.3333333e-001, 1.0000000e-001</node>
			<node id="19">-5.0000000e-001,-2.0000000e-001, 0.0000000e+000</node>
			<node id="20">-5.0000000e-001,-2.0000000e-001, 1.0000000e-001</node>
<!-- ... 1902 like lines cut -->
		</Nodes>
		<Elements type="hex8" mat="1" name="Part1">
			<elem id="1">     1,    63,    65,     3,     2,    64,    66,     4</elem>
			<elem id="2">     3,    65,    67,     5,     4,    66,    68,     6</elem>
			<elem id="3">     5,    67,    69,     7,     6,    68,    70,     8</elem>
			<elem id="4">     7,    69,    71,     9,     8,    70,    72,    10</elem>
			<elem id="5">     9,    71,    73,    11,    10,    72,    74,    12</elem>
			<elem id="6">    11,    73,    75,    13,    12,    74,    76,    14</elem>
			<elem id="7">    13,    75,    77,    15,    14,    76,    78,    16</elem>
			<elem id="8">    15,    77,    79,    17,    16,    78,    80,    18</elem>
			<elem id="9">    17,    79,    81,    19,    18,    80,    82,    20</elem>
			<elem id="10">    19,    81,    83,    21,    20,    82,    84,    22</elem>
			<elem id="11">    21,    83,    85,    23,    22,    84,    86,    24</elem>
			<elem id="12">    23,    85,    87,    25,    24,    86,    88,    26</elem>
			<elem id="13">    25,    87,    89,    27,    26,    88,    90,    28</elem>
			<elem id="14">    27,    89,    91,    29,    28,    90,    92,    30</elem>
			<elem id="15">    29,    91,    93,    31,    30,    92,    94,    32</elem>
			<elem id="16">    31,    93,    95,    33,    32,    94,    96,    34</elem>
			<elem id="17">    33,    95,    97,    35,    34,    96,    98,    36</elem>
			<elem id="18">    35,    97,    99,    37,    36,    98,   100,    38</elem>
			<elem id="19">    37,    99,   101,    39,    38,   100,   102,    40</elem>
			<elem id="20">    39,   101,   103,    41,    40,   102,   104,    42</elem>
<!-- ... 430 like lines cut -->
		</Elements>
		<Elements type="hex8" mat="2" name="Part3">
			<elem id="451">   931,   993,   995,   933,   932,   994,   996,   934</elem>
			<elem id="452">   933,   995,   997,   935,   934,   996,   998,   936</elem>
			<elem id="453">   935,   997,   999,   937,   936,   998,  1000,   938</elem>
			<elem id="454">   937,   999,  1001,   939,   938,  1000,  1002,   940</elem>
			<elem id="455">   939,  1001,  1003,   941,   940,  1002,  1004,   942</elem>
			<elem id="456">   941,  1003,  1005,   943,   942,  1004,  1006,   944</elem>
			<elem id="457">   943,  1005,  1007,   945,   944,  1006,  1008,   946</elem>
			<elem id="458">   945,  1007,  1009,   947,   946,  1008,  1010,   948</elem>
			<elem id="459">   947,  1009,  1011,   949,   948,  1010,  1012,   950</elem>
			<elem id="460">   949,  1011,  1013,   951,   950,  1012,  1014,   952</elem>
			<elem id="461">   951,  1013,  1015,   953,   952,  1014,  1016,   954</elem>
			<elem id="462">   953,  1015,  1017,   955,   954,  1016,  1018,   956</elem>
			<elem id="463">   955,  1017,  1019,   957,   956,  1018,  1020,   958</elem>
			<elem id="464">   957,  1019,  1021,   959,   958,  1020,  1022,   960</elem>
			<elem id="465">   959,  1021,  1023,   961,   960,  1022,  1024,   962</elem>
			<elem id="466">   961,  1023,  1025,   963,   962,  1024,  1026,   964</elem>
			<elem id="467">   963,  1025,  1027,   965,   964,  1026,  1028,   966</elem>
			<elem id="468">   965,  1027,  1029,   967,   966,  1028,  1030,   968</elem>
			<elem id="469">   967,  1029,  1031,   969,   968,  1030,  1032,   970</elem>
			<elem id="470">   969,  1031,  1033,   971,   970,  1032,  1034,   972</elem>
<!-- ... 430 like lines cut -->
		</Elements>
		<Surface name="SurfaceLoad1">
			<quad4 id="1">    61,    59,    60,    62</quad4>
			<quad4 id="2">    59,    57,    58,    60</quad4>
			<quad4 id="3">    57,    55,    56,    58</quad4>
			<quad4 id="4">    55,    53,    54,    56</quad4>
			<quad4 id="5">    53,    51,    52,    54</quad4>
			<quad4 id="6">    51,    49,    50,    52</quad4>
			<quad4 id="7">    49,    47,    48,    50</quad4>
			<quad4 id="8">    47,    45,    46,    48</quad4>
			<quad4 id="9">    45,    43,    44,    46</quad4>
			<quad4 id="10">    43,    41,    42,    44</quad4>
			<quad4 id="11">    41,    39,    40,    42</quad4>
			<quad4 id="12">    39,    37,    38,    40</quad4>
			<quad4 id="13">    37,    35,    36,    38</quad4>
			<quad4 id="14">    35,    33,    34,    36</quad4>
			<quad4 id="15">    33,    31,    32,    34</quad4>
			<quad4 id="16">    31,    29,    30,    32</quad4>
			<quad4 id="17">    29,    27,    28,    30</quad4>
			<quad4 id="18">    27,    25,    26,    28</quad4>
			<quad4 id="19">    25,    23,    24,    26</quad4>
			<quad4 id="20">    23,    21,    22,    24</quad4>
<!-- ... 10 like lines cut -->
		</Surface>
	</Geometry>
	<Loads>
		<surface_load type="concentration flux" surface="SurfaceLoad1">
			<solute_id>1</solute_id>
			<flux lc="1">-0.5</flux>
		</surface_load>
	</Loads>
	<LoadData>
		<loadcurve id="1" type="smooth">
			<point>0,0</point>
			<point>1,1</point>
		</loadcurve>
	</LoadData>
	<Output>
		<plotfile type="febio">
			<var type="concentration['c1']=c1"/>
			<var type="concentration['c2']=c2"/>
			<var type="concentration flux['c1']=solute 1 flux"/>
			<var type="concentration flux['c2']=solute 2 flux"/>
		</plotfile>
	</Output>
</febio_spec>
