<?xml version="1.0" encoding="ISO-8859-1"?>
<febio_spec version="2.5">
	<Module type="reaction-diffusion"/>
	<Control>
		<time_steps>100</time_steps>
		<step_size>0.1</step_size>
		<alpha>0.5</alpha>
	</Control>
	<Globals>
		<SolidBoundMolecules>
			<solid_bound id="1" name="A"/>
			<solid_bound id="2" name="B"/>
			<solid_bound id="3" name="C"/>
		</SolidBoundMolecules>
	</Globals>
	<Material>
		<material id="1" name="Cartilage" type="reaction-diffusion">
			<solid_volume_fraction>0</solid_volume_fraction>
			<solid_bound_species name="A">
				<rho0>1e-5</rho0>
				<density>1</density>
				<molar_mass>1</molar_mass>
			</solid_bound_species>
			<solid_bound_species name="B">
				<rho0>0</rho0>
				<density>1</density>
				<molar_mass>1</molar_mass>
			</solid_bound_species>
			<solid_bound_species name="C">
				<rho0>0</rho0>
				<density>1</density>
				<molar_mass>1</molar_mass>
			</solid_bound_species>
			<reaction name="AtoB" type="mass action">
				<equation>A-->B</equation>
				<rate_constant>1</rate_constant>
			</reaction>
			<reaction name="BtoC" type="mass action">
				<equation>B-->C</equation>
				<rate_constant>1</rate_constant>
			</reaction>
		</material>
	</Material>
	<Geometry>
		<Nodes>
			<node id="1"> -5.0000000e-01, -5.0000000e-01,  0.0000000e+00</node>
			<node id="2"> -5.0000000e-01, -5.0000000e-01,  1.4179906e-02</node>
			<node id="3"> -5.0000000e-01, -5.0000000e-01,  2.6800022e-02</node>
			<node id="4"> -5.0000000e-01, -5.0000000e-01,  3.8031926e-02</node>
			<node id="5"> -5.0000000e-01, -5.0000000e-01,  4.8028320e-02</node>
			<node id="6"> -5.0000000e-01, -5.0000000e-01,  5.6925111e-02</node>
			<node id="7"> -5.0000000e-01, -5.0000000e-01,  6.4843255e-02</node>
			<node id="8"> -5.0000000e-01, -5.0000000e-01,  7.1890403e-02</node>
			<node id="9"> -5.0000000e-01, -5.0000000e-01,  7.8162365e-02</node>
			<node id="10"> -5.0000000e-01, -5.0000000e-01,  8.3744411e-02</node>
			<node id="11"> -5.0000000e-01, -5.0000000e-01,  8.8712431e-02</node>
			<node id="12"> -5.0000000e-01, -5.0000000e-01,  9.3133970e-02</node>
			<node id="13"> -5.0000000e-01, -5.0000000e-01,  9.7069139e-02</node>
			<node id="14"> -5.0000000e-01, -5.0000000e-01,  1.0057144e-01</node>
			<node id="15"> -5.0000000e-01, -5.0000000e-01,  1.0368849e-01</node>
			<node id="16"> -5.0000000e-01, -5.0000000e-01,  1.0646266e-01</node>
			<node id="17"> -5.0000000e-01, -5.0000000e-01,  1.0893167e-01</node>
			<node id="18"> -5.0000000e-01, -5.0000000e-01,  1.1112910e-01</node>
			<node id="19"> -5.0000000e-01, -5.0000000e-01,  1.1308480e-01</node>
			<node id="20"> -5.0000000e-01, -5.0000000e-01,  1.1482538e-01</node>
<!-- ... 104 like lines cut -->
		</Nodes>
		<Elements type="hex8" mat="1"> 
			<elem id="1">     1,    63,    94,    32,     2,    64,    95,    33</elem>
			<elem id="2">     2,    64,    95,    33,     3,    65,    96,    34</elem>
			<elem id="3">     3,    65,    96,    34,     4,    66,    97,    35</elem>
			<elem id="4">     4,    66,    97,    35,     5,    67,    98,    36</elem>
			<elem id="5">     5,    67,    98,    36,     6,    68,    99,    37</elem>
			<elem id="6">     6,    68,    99,    37,     7,    69,   100,    38</elem>
			<elem id="7">     7,    69,   100,    38,     8,    70,   101,    39</elem>
			<elem id="8">     8,    70,   101,    39,     9,    71,   102,    40</elem>
			<elem id="9">     9,    71,   102,    40,    10,    72,   103,    41</elem>
			<elem id="10">    10,    72,   103,    41,    11,    73,   104,    42</elem>
			<elem id="11">    11,    73,   104,    42,    12,    74,   105,    43</elem>
			<elem id="12">    12,    74,   105,    43,    13,    75,   106,    44</elem>
			<elem id="13">    13,    75,   106,    44,    14,    76,   107,    45</elem>
			<elem id="14">    14,    76,   107,    45,    15,    77,   108,    46</elem>
			<elem id="15">    15,    77,   108,    46,    16,    78,   109,    47</elem>
			<elem id="16">    16,    78,   109,    47,    17,    79,   110,    48</elem>
			<elem id="17">    17,    79,   110,    48,    18,    80,   111,    49</elem>
			<elem id="18">    18,    80,   111,    49,    19,    81,   112,    50</elem>
			<elem id="19">    19,    81,   112,    50,    20,    82,   113,    51</elem>
			<elem id="20">    20,    82,   113,    51,    21,    83,   114,    52</elem>
<!-- ... 10 like lines cut -->
		</Elements>
		<NodeSet name="set1">
			<node id="31"/>
			<node id="62"/>
			<node id="93"/>
			<node id="124"/>
		</NodeSet>
		<NodeSet name="set2">
			<node id="31"/>
			<node id="62"/>
			<node id="93"/>
			<node id="124"/>
		</NodeSet>
	</Geometry>
	<Output>
		<plotfile type="febio">
			<var type="sbs concentration['A']"/>
			<var type="sbs concentration['B']"/>
			<var type="sbs concentration['C']"/>
			<var type="solid volume fraction"/>
		</plotfile>
	</Output>
</febio_spec>
