<?xml version="1.0" encoding="ISO-8859-1"?>
<febio_spec version="2.5">
	<Module type="reaction-diffusion"/>
	<Control>
		<time_steps>80</time_steps>
		<step_size>0.05</step_size>
	</Control>
	<Globals>
		<Solutes>
			<solute id="1" name="A"/>
		</Solutes>
		<SolidBoundMolecules>
			<solid_bound id="1" name="H">
				<charge_number>0</charge_number>
				<molar_mass>1</molar_mass>
				<density>1</density>
			</solid_bound>		
		</SolidBoundMolecules>
	</Globals>
	<Material>
		<material id="1" name="Material1" type="reaction-diffusion">
			<species name="A">
				<diffusivity>2.93e-3</diffusivity>
			</species>
			<solid_bound_species name="H">
				<rho0>0</rho0>
				<molar_mass>110</molar_mass>
				<density>1430</density>
			</solid_bound_species>
			<reaction type="mass action">
				<equation>H --> H + A</equation>
				<rate_constant>1.2e-5</rate_constant>
			</reaction>
		</material>
	</Material>
	<Geometry>
		<Nodes name="Object01">
			<node id="1"> -5.0000000e-01, -5.0000000e-01,  0.0000000e+00</node>
			<node id="2"> -5.0000000e-01, -5.0000000e-01,  5.0000000e-02</node>
			<node id="3"> -5.0000000e-01, -5.0000000e-01,  1.0000000e-01</node>
			<node id="4"> -5.0000000e-01, -5.0000000e-01,  1.5000000e-01</node>
			<node id="5"> -5.0000000e-01, -5.0000000e-01,  2.0000000e-01</node>
			<node id="6"> -5.0000000e-01, -4.5000000e-01,  0.0000000e+00</node>
			<node id="7"> -5.0000000e-01, -4.5000000e-01,  5.0000000e-02</node>
			<node id="8"> -5.0000000e-01, -4.5000000e-01,  1.0000000e-01</node>
			<node id="9"> -5.0000000e-01, -4.5000000e-01,  1.5000000e-01</node>
			<node id="10"> -5.0000000e-01, -4.5000000e-01,  2.0000000e-01</node>
			<node id="11"> -5.0000000e-01, -4.0000000e-01,  0.0000000e+00</node>
			<node id="12"> -5.0000000e-01, -4.0000000e-01,  5.0000000e-02</node>
			<node id="13"> -5.0000000e-01, -4.0000000e-01,  1.0000000e-01</node>
			<node id="14"> -5.0000000e-01, -4.0000000e-01,  1.5000000e-01</node>
			<node id="15"> -5.0000000e-01, -4.0000000e-01,  2.0000000e-01</node>
			<node id="16"> -5.0000000e-01, -3.5000000e-01,  0.0000000e+00</node>
			<node id="17"> -5.0000000e-01, -3.5000000e-01,  5.0000000e-02</node>
			<node id="18"> -5.0000000e-01, -3.5000000e-01,  1.0000000e-01</node>
			<node id="19"> -5.0000000e-01, -3.5000000e-01,  1.5000000e-01</node>
			<node id="20"> -5.0000000e-01, -3.5000000e-01,  2.0000000e-01</node>
<!-- ... 2185 like lines cut -->
		</Nodes>
		<Elements type="hex8" mat="1" name="Part1">
			<elem id="1">     1,   106,   111,     6,     2,   107,   112,     7</elem>
			<elem id="2">     2,   107,   112,     7,     3,   108,   113,     8</elem>
			<elem id="3">     3,   108,   113,     8,     4,   109,   114,     9</elem>
			<elem id="4">     4,   109,   114,     9,     5,   110,   115,    10</elem>
			<elem id="5">     6,   111,   116,    11,     7,   112,   117,    12</elem>
			<elem id="6">     7,   112,   117,    12,     8,   113,   118,    13</elem>
			<elem id="7">     8,   113,   118,    13,     9,   114,   119,    14</elem>
			<elem id="8">     9,   114,   119,    14,    10,   115,   120,    15</elem>
			<elem id="9">    11,   116,   121,    16,    12,   117,   122,    17</elem>
			<elem id="10">    12,   117,   122,    17,    13,   118,   123,    18</elem>
			<elem id="11">    13,   118,   123,    18,    14,   119,   124,    19</elem>
			<elem id="12">    14,   119,   124,    19,    15,   120,   125,    20</elem>
			<elem id="13">    16,   121,   126,    21,    17,   122,   127,    22</elem>
			<elem id="14">    17,   122,   127,    22,    18,   123,   128,    23</elem>
			<elem id="15">    18,   123,   128,    23,    19,   124,   129,    24</elem>
			<elem id="16">    19,   124,   129,    24,    20,   125,   130,    25</elem>
			<elem id="17">    21,   126,   131,    26,    22,   127,   132,    27</elem>
			<elem id="18">    22,   127,   132,    27,    23,   128,   133,    28</elem>
			<elem id="19">    23,   128,   133,    28,    24,   129,   134,    29</elem>
			<elem id="20">    24,   129,   134,    29,    25,   130,   135,    30</elem>
<!-- ... 1580 like lines cut -->
		</Elements>
		<NodeSet name="FixedDisplacement1">
			<node id="1"/>
			<node id="6"/>
			<node id="11"/>
			<node id="16"/>
			<node id="21"/>
			<node id="26"/>
			<node id="31"/>
			<node id="36"/>
			<node id="41"/>
			<node id="46"/>
			<node id="51"/>
			<node id="56"/>
			<node id="61"/>
			<node id="66"/>
			<node id="71"/>
			<node id="76"/>
			<node id="81"/>
			<node id="86"/>
			<node id="91"/>
			<node id="96"/>
<!-- ... 421 like lines cut -->
		</NodeSet>
		<NodeSet name="FixedEffectiveFluidPressure1">
			<node id="1"/>
			<node id="6"/>
			<node id="11"/>
			<node id="16"/>
			<node id="21"/>
			<node id="26"/>
			<node id="31"/>
			<node id="36"/>
			<node id="41"/>
			<node id="46"/>
			<node id="51"/>
			<node id="56"/>
			<node id="61"/>
			<node id="66"/>
			<node id="71"/>
			<node id="76"/>
			<node id="81"/>
			<node id="86"/>
			<node id="91"/>
			<node id="96"/>
<!-- ... 421 like lines cut -->
		</NodeSet>
	</Geometry>
	<Loads>
		<body_load type="sbs point source">
			<sbs>1</sbs>
			<value>1e-5</value>
			<x lc="1">0.4</x>
			<y lc="2">0.4</y>
			<z>0.2</z>
		</body_load>
	</Loads>
    <LoadData>
        <loadcurve extend="constant" id="1" type="smooth">
            <point>0, 0</point>
            <point>1, 1</point>
            <point>2, 0</point>
            <point>3,-1</point>
            <point>4,0</point>
        </loadcurve>
        <loadcurve extend="constant" id="2" type="smooth">
            <point>0, -1</point>
            <point>1, 0</point>
            <point>2, 1</point>
            <point>3, 0</point>
            <point>4, -1</point>
        </loadcurve>
	</LoadData>
	<Output>
		<plotfile type="febio">
			<var type="concentration['c1']=A"/>
			<var type="sbs concentration['H']=H"/>
		</plotfile>
	</Output>
</febio_spec>
