<?xml version="1.0" encoding="ISO-8859-1"?>
<febio_spec version="4.0">
	<Module type="reaction-diffusion"/>
	<Control>
		<analysis>TRANSIENT</analysis>
		<time_steps>100</time_steps>
		<step_size>0.1</step_size>
		<plot_zero_state>0</plot_zero_state>
		<plot_range>0,-1</plot_range>
		<plot_level>PLOT_MAJOR_ITRS</plot_level>
		<output_level>OUTPUT_MAJOR_ITRS</output_level>
		<plot_stride>1</plot_stride>
		<output_stride>1</output_stride>
		<adaptor_re_solve>1</adaptor_re_solve>
		<time_stepper type="default">
			<max_retries>5</max_retries>
			<opt_iter>11</opt_iter>
			<dtmin>0</dtmin>
			<dtmax>0.1</dtmax>
			<aggressiveness>0</aggressiveness>
			<cutback>0.5</cutback>
			<dtforce>0</dtforce>
		</time_stepper>
		<solver type="reaction-diffusion">
			<symmetric_stiffness>non-symmetric</symmetric_stiffness>
			<equation_scheme>staggered</equation_scheme>
			<equation_order>default</equation_order>
			<optimize_bw>0</optimize_bw>
			<lstol>0.9</lstol>
			<lsmin>0.01</lsmin>
			<lsiter>5</lsiter>
			<ls_check_jacobians>0</ls_check_jacobians>
			<max_refs>15</max_refs>
			<check_zero_diagonal>0</check_zero_diagonal>
			<zero_diagonal_tol>0</zero_diagonal_tol>
			<force_partition>0</force_partition>
			<reform_each_time_step>1</reform_each_time_step>
			<reform_augment>0</reform_augment>
			<diverge_reform>0</diverge_reform>
			<min_residual>1e-20</min_residual>
			<max_residual>0</max_residual>
			<Ctol>0.001</Ctol>
			<Stol>0</Stol>
			<Rtol>0.01</Rtol>
			<force_positive_concentrations>0</force_positive_concentrations>
			<convection>0</convection>
			<alpha>0.5</alpha>
			<qn_method type="BFGS">
				<max_ups>10</max_ups>
				<max_buffer_size>0</max_buffer_size>
				<cycle_buffer>1</cycle_buffer>
				<cmax>100000</cmax>
			</qn_method>
		</solver>
	</Control>
	<Globals>
		<Constants>
			<T>0</T>
			<P>0</P>
			<R>8.31446</R>
			<Fc>96485.3</Fc>
		</Constants>
		<Solutes>
			<solute id="1" name="A">
				<charge_number>0</charge_number>
				<molar_mass>1</molar_mass>
				<density>1</density>
			</solute>
			<solute id="2" name="B">
				<charge_number>0</charge_number>
				<molar_mass>1</molar_mass>
				<density>1</density>
			</solute>
		</Solutes>
	</Globals>
	<Material>
		<material id="1" name="Material1" type="reaction-diffusion">
			<solid_volume_fraction>0</solid_volume_fraction>
			<species name="A">
				<diffusivity>1</diffusivity>
			</species>
			<species name="B">
				<diffusivity>1</diffusivity>
			</species>
			<reaction type="mass action">
				<rate_constant>1</rate_constant>
				<equation>A-->B</equation>
				<force_positive_concentrations>0</force_positive_concentrations>
			</reaction>
		</material>
	</Material>
	<Mesh>
		<Nodes name="Object1">
			<node id="1">-5,-0.5,0</node>
			<node id="2">5,-0.5,0</node>
			<node id="3">5,0.5,0</node>
			<node id="4">-5,0.5,0</node>
			<node id="5">-5,-0.5,1</node>
			<node id="6">5,-0.5,1</node>
			<node id="7">5,0.5,1</node>
			<node id="8">-5,0.5,1</node>
			<node id="9">-4.9,-0.5,0</node>
			<node id="10">-4.8,-0.5,0</node>
			<node id="11">-4.7,-0.5,0</node>
			<node id="12">-4.6,-0.5,0</node>
			<node id="13">-4.5,-0.5,0</node>
			<node id="14">-4.4,-0.5,0</node>
			<node id="15">-4.3,-0.5,0</node>
			<node id="16">-4.2,-0.5,0</node>
			<node id="17">-4.1,-0.5,0</node>
			<node id="18">-4,-0.5,0</node>
			<node id="19">-3.9,-0.5,0</node>
			<node id="20">-3.8,-0.5,0</node>
<!-- ... 384 like lines cut -->
		</Nodes>
		<Elements type="hex8" name="Part1">
			<elem id="1">1,9,305,4,5,206,306,8</elem>
			<elem id="2">9,10,304,305,206,205,307,306</elem>
			<elem id="3">10,11,303,304,205,204,308,307</elem>
			<elem id="4">11,12,302,303,204,203,309,308</elem>
			<elem id="5">12,13,301,302,203,202,310,309</elem>
			<elem id="6">13,14,300,301,202,201,311,310</elem>
			<elem id="7">14,15,299,300,201,200,312,311</elem>
			<elem id="8">15,16,298,299,200,199,313,312</elem>
			<elem id="9">16,17,297,298,199,198,314,313</elem>
			<elem id="10">17,18,296,297,198,197,315,314</elem>
			<elem id="11">18,19,295,296,197,196,316,315</elem>
			<elem id="12">19,20,294,295,196,195,317,316</elem>
			<elem id="13">20,21,293,294,195,194,318,317</elem>
			<elem id="14">21,22,292,293,194,193,319,318</elem>
			<elem id="15">22,23,291,292,193,192,320,319</elem>
			<elem id="16">23,24,290,291,192,191,321,320</elem>
			<elem id="17">24,25,289,290,191,190,322,321</elem>
			<elem id="18">25,26,288,289,190,189,323,322</elem>
			<elem id="19">26,27,287,288,189,188,324,323</elem>
			<elem id="20">27,28,286,287,188,187,325,324</elem>
<!-- ... 80 like lines cut -->
		</Elements>
		<Surface name="ConcentrationFlux1">
			<quad4 id="1">4,1,5,8</quad4>
		</Surface>
	</Mesh>
	<MeshDomains>
		<SolidDomain name="Part1" mat="Material1"/>
	</MeshDomains>
	<Loads>
		<surface_load name="ConcentrationFlux1" surface="ConcentrationFlux1" type="concentration flux">
			<flux>-1</flux>
			<solute_id>1</solute_id>
		</surface_load>
	</Loads>
	<Output>
		<plotfile type="febio">
			<var type="actual concentration"/>
			<var type="concentration flux"/>
		</plotfile>
	</Output>
</febio_spec>
